  13
        
 C          1.2592727023        0.4932679205        0.2444325231
 O          1.3959348227       -0.8882997692       -0.0180556979
 H          1.4475117745       -1.0173128383       -0.9725058979
 C         -0.0156299764        1.0919572113       -0.3549619788
 C         -1.2768069377        0.4616569308        0.2474996182
 O         -1.4188834672       -0.8946707388       -0.0844140433
 H         -0.5938211377       -1.3392999292        0.1641855178
 H         -1.2566200898        0.5909527998        1.3407396584
 H         -2.1673419369        0.9623207913       -0.1418189430
 H         -0.0245987767        2.1655563211       -0.1658360778
 H         -0.0213289444        0.9308916623       -1.4362791989
 H          2.1371409431        1.0392731308       -0.1281680447
 H          1.2385580103        0.5780832795        1.3340333732
