  17
       
 C         -2.2954283688       -0.0641379481        0.5718510214
 O         -2.6320724888       -0.7954048816       -0.5758115964
 H         -1.8174694088       -1.1837689725       -0.9180671053
 C         -1.1399704790        0.9008450613        0.3090327083
 O         -0.0005467589        0.1259112106        0.0025254705
 C          1.1379481009        0.8980398798       -0.3144156020
 C          2.2925192211       -0.0690528708       -0.5735136791
 O          2.6368712413       -0.7880213073        0.5796405530
 H          1.8256322714       -1.1772940063        0.9288106343
 H          3.1828826209        0.4872028784       -0.8726952809
 H          2.0056560511       -0.7526937234       -1.3853316970
 H          1.3869069109        1.5625435224        0.5257225060
 H          0.9489639407        1.5134162570       -1.2059974038
 H         -0.9544224690        1.5237757841        1.1961078364
 H         -1.3857809992        1.5582810387       -0.5376875937
 H         -2.0132007986       -0.7392909255        1.3923632734
 H         -3.1878959589        0.4945758827        0.8598655098
